/*--------------------------------*- C++ -*----------------------------------*\
  =========                 |
  \\      /  F ield         | OpenFOAM: The Open Source CFD Toolbox
   \\    /   O peration     | Website:  https://openfoam.org
    \\  /    A nd           | Version:  10
     \\/     M anipulation  |
\*---------------------------------------------------------------------------*/
FoamFile
{
    format      ascii;
    class       dictionary;
    location    "system";
    object      controlDict;
}
// * * * * * * * * * * * * * * * * * * * * * * * * * * * * * * * * * * * * * //

libs (
"libturbulentFluxCoupledBaffleMixedOnly1.so"
"libturbulentPressureCoupledBaffleMixedOnly1Cal.so"
"libturbulentTemperatureKappaOneCoupledBaffleMixed.so"
);

application     pimpleFoam;

startFrom       latestTime;

startTime       0;

stopAt          endTime;

endTime         19080;//7920;//37080;//

deltaT          1e-5;

writeControl    adjustableRunTime;

writeInterval   100;

purgeWrite      0;

writeFormat     ascii;

writePrecision  6;

writeCompression off;

timeFormat      general;

timePrecision   6;

runTimeModifiable yes;

adjustTimeStep  yes;

maxCo           0.01;

maxDeltaT       1e-3;
// ************************************************************************* //
