/*--------------------------------*- C++ -*----------------------------------*\
  =========                 |
  \\      /  F ield         | OpenFOAM: The Open Source CFD Toolbox
   \\    /   O peration     | Website:  https://openfoam.org
    \\  /    A nd           | Version:  9
     \\/     M anipulation  |
\*---------------------------------------------------------------------------*/
FoamFile
{
    format      ascii;
    class       volScalarField;
    location    "0/air";
    object      p;
}
// * * * * * * * * * * * * * * * * * * * * * * * * * * * * * * * * * * * * * //

dimensions      [1 -1 -2 0 0 0 0];

internalField   uniform 1e5;

boundaryField
{
   
    air_to_porous
    {
        type            calculated;
        value           $internalField;
    }
    
    symm
    {
        type            symmetry;
    }
    
    inlet
    {
        type            calculated;
        value           $internalField;
    }

    //#includeEtc "caseDicts/setConstraintTypes"
}

// ************************************************************************* //
